FoamFile
{
    version 2.0;
    format ascii;
    class dictionary;
    object blockMeshDict;
}

scale 1.0;

vertices
(
    (-100.000000 0.000000 -100.000000)
    (100.000000 0.000000 -100.000000)
    (100.000000 50.000000 -100.000000)
    (-100.000000 50.000000 -100.000000)
    (-100.000000 0.000000 100.000000)
    (100.000000 0.000000 100.000000)
    (100.000000 50.000000 100.000000)
    (-100.000000 50.000000 100.000000)
);

blocks
(
    hex (0 1 2 3 4 5 6 7) (20 10 20) simpleGrading (1 1 1)
);

edges
(
);


boundary
(
    sym
    {
        type symmetryPlane;
        faces
        (
            (0 1 4 5)
        );
    }

    farfield
    {
        type patch;
        faces
        (
            (2 3 7 6)  // y = farfield/2
            (0 3 7 4)  // -x side
            (1 5 6 2)  // +x side
            (0 1 2 3)  // -z side
            (4 5 6 7)  // +z side
        );
    }
);

mergePatchPairs
(
);
